Circuit: * C:\Users\stjo\Documents\GitHub\hardware\LTSpice-Simu\Analog_IN_0-10V.asc

Direct Newton iteration for .op point succeeded.

Date: Thu Dec 17 20:05:39 2015
Total elapsed time: 0.070 seconds.

tnom = 27
temp = 27
method = modified trap
totiter = 2108
traniter = 2088
tranpoints = 1045
accept = 1045
rejected = 0
matrix size = 7
fillins = 0
solver = Normal
Matrix Compiler1: 250 Bytes object code size  0.1/0.1/[0.0]
Matrix Compiler2: off  [0.1]/0.2/0.1


