Circuit: * C:\users\johannes\Meine Dokumente\eagle\homecontroller\LTSpice-Simu\Analog_IN_0-10V.asc

WARNING: Node NC_02 is floating.

WARNING: Less than two connections to node NC_01.  This node is used by R:U2:.
u1:vccvs1_in: Missing value, assumed 0V @ DC
Direct Newton iteration failed to find .op point.  (Use ".option noopiter" to skip.)
Starting Gmin stepping
Gmin = 10
Gmin = 1.07374
Gmin = 0.115292
Gmin = 0.0123794
Gmin = 0.00132923
vernier = 0.5
vernier = 0.25
vernier = 0.125
vernier = 0.0625
Gmin = 0.00100083
vernier = 0.03125
vernier = 0.015625
vernier = 0.0078125
vernier = 0.00390625
vernier = 0.00195313
Gmin = 0.00100083
vernier = 0.000976563
vernier = 0.000488281
Gmin = 0
Gmin stepping succeeded in finding the operating point.


Date: Sun Mar 20 21:36:10 2016
Total elapsed time: 0.469 seconds.

tnom = 27
temp = 27
method = trap
totiter = 1548
traniter = 0
tranpoints = 0
accept = 0
rejected = 0
matrix size = 187
fillins = 328
solver = Normal
Matrix Compiler1:    1409 opcodes
Matrix Compiler2: 20.05 KB object code size  5.1/6.8/[2.5]


