Circuit: * Z:\home\johannes\eagle\homecontroller\LTSpice-Simu\Analog_IN_0-10V.asc

u1:vccvs1_in: Missing value, assumed 0V @ DC
Direct Newton iteration failed to find .op point.  (Use ".option noopiter" to skip.)
Starting Gmin stepping
Gmin = 10
Gmin = 1.07374
Gmin = 0.115292
Gmin = 0.0123794
Gmin = 0.00132923
vernier = 0.5
vernier = 0.25
vernier = 0.125
vernier = 0.0625
Gmin = 0.00100083
vernier = 0.03125
vernier = 0.015625
vernier = 0.0078125
vernier = 0.00390625
vernier = 0.00195313
Gmin = 0.00100083
vernier = 0.000976563
vernier = 0.000488281
Gmin = 0
Gmin stepping failed

Starting source stepping with srcstepmethod=0
Source Step = 3.0303%
Source Step = 33.3333%
Source Step = 63.6364%
Source Step = 93.9394%
Source stepping succeeded in finding the operating point.

Changing Tseed to 1e-008
Heightened Def Con from 1.45692e-007 to 1.49692e-007
Heightened Def Con from 1.62656e-007 to 1.66656e-007
Heightened Def Con from 1.68283e-007 to 1.70283e-007

Date: Thu Feb 11 13:44:57 2016
Total elapsed time: 1.815 seconds.

tnom = 27
temp = 27
method = modified trap
totiter = 34689
traniter = 32800
tranpoints = 6969
accept = 5262
rejected = 1709
matrix size = 183
fillins = 550
solver = Normal
Thread vector: 19.5/14.8[2] 5.9/4.5[2] 4.7/3.7[2] 2.1/2.5[1]  2592/500
Matrix Compiler1: 46.83 KB object code size  16.4/12.6/[5.0]
Matrix Compiler2: 23.48 KB object code size  5.5/7.1/[2.5]


