Circuit: * C:\Users\stjo\Documents\GitHub\hardware\LTSpice-Simu\AnalogIN_OPA170.asc

u1:vccvs1_in: Missing value, assumed 0V @ DC
Direct Newton iteration failed to find .op point.  (Use ".option noopiter" to skip.)
Starting Gmin stepping
Gmin = 10
Gmin = 1.07374
Gmin = 0.115292
Gmin = 0.0123794
Gmin = 0.00132923
Gmin = 0.000142725
Gmin = 1.5325e-005
Gmin = 1.6455e-006
Gmin = 1.76685e-007
Gmin = 1.89714e-008
Gmin = 2.03704e-009
Gmin = 2.18725e-010
Gmin = 2.34854e-011
Gmin = 2.52173e-012
Gmin = 2.70769e-013
Gmin = 0
Gmin stepping succeeded in finding the operating point.

Changing Tseed to 1e-008
Changing Tseed to 1e-010
Changing Tseed to 1e-007
Changing Tseed to 1e-011
Changing Tseed to 1e-006
Changing Tseed to 1e-012
Changing Tseed to 1e-005
Changing Tseed to 1e-013
Changing Tseed to 0.0001
Changing Tseed to 1e-014
Changing Tseed to 0.001
Changing Tseed to 1e-015
Heightened Def Con from 3.90625e-018 to 1.625e-009

Date: Fri Dec 18 22:52:22 2015
Total elapsed time: 1.841 seconds.

tnom = 27
temp = 27
method = modified trap
totiter = 56231
traniter = 55714
tranpoints = 19860
accept = 13047
rejected = 6802
matrix size = 183
fillins = 507
solver = Normal
Thread vector: 55.1/15.2[2] 4.0/3.4[2] 5.7/4.1[2] 2.9/2.0[2]  2592/500
Matrix Compiler1: 41,4 KB object code size  9.9/6.5/[3.8]
Matrix Compiler2: 22,7 KB object code size  4.6/5.9/[4.5]


