Circuit: * Z:\home\johannes\eagle\homecontroller\LTSpice-Simu\AnalogIN_OPA170.asc

u1:vccvs1_in: Missing value, assumed 0V @ DC
Direct Newton iteration failed to find .op point.  (Use ".option noopiter" to skip.)
Starting Gmin stepping
Gmin = 10
Gmin = 1.07374
Gmin = 0.115292
Gmin = 0.0123794
Gmin = 0.00132923
vernier = 0.5
vernier = 0.25
vernier = 0.125
vernier = 0.0625
Gmin = 0.00100083
vernier = 0.03125
vernier = 0.015625
vernier = 0.0078125
vernier = 0.00390625
vernier = 0.00195313
Gmin = 0.00100083
vernier = 0.000976563
vernier = 0.000488281
Gmin = 0
Gmin stepping failed

Starting source stepping with srcstepmethod=0
Source Step = 3.0303%
Source Step = 33.3333%
Source Step = 63.6364%
Source Step = 93.9394%
Source stepping succeeded in finding the operating point.

Changing Tseed to 1e-008
Changing Tseed to 1e-010
Changing Tseed to 1e-007
Changing Tseed to 1e-011
Changing Tseed to 1e-006
Changing Tseed to 1e-012
Changing Tseed to 1e-005
Changing Tseed to 1e-013
Changing Tseed to 0.0001
Changing Tseed to 1e-014
Changing Tseed to 0.001
Changing Tseed to 1e-015
Heightened Def Con from 3.90625e-018 +++++++++++++++++++++to 7.32426e-013
Heightened Def Con from 7.34009e-009 to 1.13401e-008

Date: Sat Dec 19 17:37:13 2015
Total elapsed time: 1.505 seconds.

tnom = 27
temp = 27
method = modified trap
totiter = 7821
traniter = 5940
tranpoints = 1621
accept = 1327
rejected = 305
matrix size = 182
fillins = 592
solver = Normal
Thread vector: 20.8/15.2[2] 6.3/16.7[1] 4.9/21.5[1] 2.5/2.7[1]  2592/500
Matrix Compiler1: 45.59 KB object code size  16.3/12.1/[4.7]
Matrix Compiler2: 24.37 KB object code size  5.4/7.5/[2.6]


