Circuit: * C:\Users\stjo\Documents\GitHub\hardware\LTSpice-Simu\Analog_IN_0-10V.asc

u1:vccvs1_in: Missing value, assumed 0V @ DC
Direct Newton iteration failed to find .op point.  (Use ".option noopiter" to skip.)
Starting Gmin stepping
Gmin = 10
Gmin = 1.07374
Gmin = 0.115292
Gmin = 0.0123794
Gmin = 0.00132923
vernier = 0.5
vernier = 0.25
vernier = 0.125
vernier = 0.0625
Gmin = 0.00100083
vernier = 0.03125
vernier = 0.015625
vernier = 0.0078125
vernier = 0.00390625
vernier = 0.00195313
Gmin = 0.00100083
vernier = 0.000976563
vernier = 0.000488281
Gmin = 0
Gmin stepping failed

Starting source stepping with srcstepmethod=0
Source Step = 3.0303%
Source Step = 33.3333%
Source Step = 63.6364%
Source Step = 93.9394%
Source stepping succeeded in finding the operating point.

Changing Tseed to 1e-008
Changing Tseed to 1e-010
Changing Tseed to 1e-007
Changing Tseed to 1e-011
Changing Tseed to 1e-006
Changing Tseed to 1e-012
Changing Tseed to 1e-005
Changing Tseed to 1e-013
Changing Tseed to 0.0001
Changing Tseed to 1e-014
Changing Tseed to 0.001
Changing Tseed to 1e-015
Heightened Def Con from 3.90625e-018 ++++++++++++++++++to 1.8272e-016

Date: Fri Feb 05 21:56:08 2016
Total elapsed time: 0.765 seconds.

tnom = 27
temp = 27
method = modified trap
totiter = 7516
traniter = 5611
tranpoints = 1607
accept = 1354
rejected = 260
matrix size = 181
fillins = 606
solver = Normal
Thread vector: 37.2/20.9[2] 4.0/3.1[2] 3.4/2.4[2] 1.6/6.2[1]  2592/500
Matrix Compiler1: 47,9 KB object code size  10.8/7.6/[4.4]
Matrix Compiler2: 24,3 KB object code size  4.6/6.8/[3.7]


