Circuit: * C:\users\johannes\Meine Dokumente\eagle\homecontroller\LTSpice-Simu\Draft1.asc

Direct Newton iteration for .op point succeeded.

Date: Sun Mar 20 21:54:10 2016
Total elapsed time: 0.038 seconds.

tnom = 27
temp = 27
method = modified trap
totiter = 100
traniter = 94
tranpoints = 48
accept = 48
rejected = 0
matrix size = 4
fillins = 0
solver = Normal
Matrix Compiler1: 118 bytes object code size
Matrix Compiler2: 242 bytes object code size  0.6/0.7/[0.6]


