Circuit: * C:\users\johannes\Meine Dokumente\eagle\homecontroller\LTSpice-Simu\OPTTO-Input.asc

Direct Newton iteration for .op point succeeded.

Date: Fri Mar 11 00:01:50 2016
Total elapsed time: 0.030 seconds.

tnom = 27
temp = 27
method = modified trap
totiter = 109
traniter = 94
tranpoints = 48
accept = 48
rejected = 0
matrix size = 9
fillins = 0
solver = Normal
Matrix Compiler1: 260 bytes object code size
Matrix Compiler2: 605 bytes object code size  0.6/0.8/[0.7]


